*
* IBM Confidential
*
* OCO Source Materials
*
* Copyright IBM Corp. 2011
*
* The source code for this program is not published or otherwise
* divested of its trade secrets, irrespective of what has been
* deposited with the U.S. Copyright Office.
*
         MACRO
&NAME    R12EPIL
         LG   13,128(,13)
         LG   14,8(,13)
         LMG  1,11,32(13)
         BR   14
         MEND